examples/feeders/22_SE001_1/22_SE001_1_EXP_LOSSES.CSV
Element,  Total(W), Total(var),  I2R(W), I2X(var), No-load(W), No-load(var)
Line.17CF_1261, -1.916134E-005, -0.217796, -1.916134E-005, -0.217796, 0, 0
Line.17CF_1305, 9.502621E-007, -0.07317463, 9.502621E-007, -0.07317463, 0, 0
Line.17CF_1351, -1.046062E-005, -0.07330295, -1.046062E-005, -0.07330295, 0, 0
Line.17CF_1478, 1.861973E-005, -0.07384845, 1.861973E-005, -0.07384845, 0, 0
Line.17CF_1481, 7.039967E-005, -0.07359946, 7.039967E-005, -0.07359946, 0, 0
Line.17CF_1495, 6.3575E-005, -0.2197679, 6.3575E-005, -0.2197679, 0, 0
Line.17CF_1561, 0.0004907403, -0.2196803, 0.0004907403, -0.2196803, 0, 0
Line.17CF_1618, 4.903514E-005, -0.218704, 4.903514E-005, -0.218704, 0, 0
Line.17CF_1619, 5.029447E-005, -0.2191928, 5.029447E-005, -0.2191928, 0, 0
Line.17CF_1719, 5.686286E-006, -0.2201087, 5.686286E-006, -0.2201087, 0, 0
Line.17CF_1775, 2.46737E-005, -0.2208557, 2.46737E-005, -0.2208557, 0, 0
Line.17CF_1776, 2.716548E-005, -0.07349341, 2.716548E-005, -0.07349341, 0, 0
Line.17CF_1784, 2.307272E-005, -0.2197433, 2.307272E-005, -0.2197433, 0, 0
Line.17CF_1785, -5.538316E-006, -0.07374459, -5.538316E-006, -0.07374459, 0, 0
Line.17CF_1786, -2.301333E-006, -0.07329496, -2.301333E-006, -0.07329496, 0, 0
Line.17CF_1787, 8.985843E-005, -0.07318726, 8.985843E-005, -0.07318726, 0, 0
Line.17CF_1788, -2.141029E-005, -0.2199961, -2.141029E-005, -0.2199961, 0, 0
Line.17CF_1789, 1.623684E-005, -0.07325124, 1.623684E-005, -0.07325124, 0, 0
Line.17CF_1790, 3.301894E-006, -0.07358483, 3.301894E-006, -0.07358483, 0, 0
Line.17CF_1791, 1.715685E-005, -0.2194473, 1.715685E-005, -0.2194473, 0, 0
Line.17CF_1792, 3.579599E-006, -0.2194463, 3.579599E-006, -0.2194463, 0, 0
Line.17CF_1897, 3.750145E-005, -0.2205485, 3.750145E-005, -0.2205485, 0, 0
Line.17CF_653, 0.0002157484, -0.2196121, 0.0002157484, -0.2196121, 0, 0
Line.17CF_901, -4.766373E-007, -0.07313503, -4.766373E-007, -0.07313503, 0, 0
Line.17CS_1594, 0.06992222, -0.150235, 0.06992222, -0.150235, 0, 0
Line.17CS_1751, 7.498327, 7.277101, 7.498327, 7.277101, 0, 0
Line.17CS_1780, 7.49443, 7.273513, 7.49443, 7.273513, 0, 0
Line.17CS_1781, 5.976539, 5.756302, 5.976539, 5.756302, 0, 0
Line.17CS_596, 5.633132, 5.414328, 5.633132, 5.414328, 0, 0
Line.17DJ_22, -2.588891E-005, -0.2213165, -2.588891E-005, -0.2213165, 0, 0
Line.17FR_1777, 0.07460448, -0.1457194, 0.07460448, -0.1457194, 0, 0
Line.17FR_778, 0.0008419526, -0.07272643, 0.0008419526, -0.07272643, 0, 0
Line.17RL_1739, 5.753291, 5.534012, 5.753291, 5.534012, 0, 0
Line.17RL_5212, 8.273399E-006, -0.2212817, 8.273399E-006, -0.2212817, 0, 0
Line.18CF_1023, 0.0001962781, -0.2201475, 0.0001962781, -0.2201475, 0, 0
Line.18CF_1046, 2.878725E-006, -0.07229479, 2.878725E-006, -0.07229479, 0, 0
Line.18CF_1062, 1.293168E-005, -0.07139315, 1.293168E-005, -0.07139315, 0, 0
Line.18CF_1073, -1.104534E-005, -0.07138726, -1.104534E-005, -0.07138726, 0, 0
Line.18CF_1091, 0.0001118373, -0.1465254, 0.0001118373, -0.1465254, 0, 0
Line.18CF_1385, 0.0001892502, -0.07204018, 0.0001892502, -0.07204018, 0, 0
Line.18CF_1457, 5.643087E-005, -0.07659212, 5.643087E-005, -0.07659212, 0, 0
Line.18CF_1679, 3.666619E-006, -0.07296015, 3.666619E-006, -0.07296015, 0, 0
Line.18CF_1763, 9.542755E-006, -0.072301, 9.542755E-006, -0.072301, 0, 0
Line.18CF_1919, -1.580262E-005, -0.07670185, -1.580262E-005, -0.07670185, 0, 0
Line.18CF_234, 0.0002432239, -0.2200659, 0.0002432239, -0.2200659, 0, 0
Line.18CF_435, 6.163929E-006, -0.07230281, 6.163929E-006, -0.07230281, 0, 0
Line.18CF_497, 0.0001892227, -0.07029139, 0.0001892227, -0.07029139, 0, 0
Line.18CF_849, 1.649786E-005, -0.07664422, 1.649786E-005, -0.07664422, 0, 0
Line.18CS_1106, 0.0002135647, -0.2200984, 0.0002135647, -0.2200984, 0, 0
Line.18CS_922, 0.004796949, -0.2155645, 0.004796949, -0.2155645, 0, 0
Line.18FR_1395, 0.0001985275, -0.146435, 0.0001985275, -0.146435, 0, 0
Line.18FS_173, 0.0007729588, -0.07590821, 0.0007729588, -0.07590821, 0, 0
Line.18FS_373, 0.001015344, -0.07210445, 0.001015344, -0.07210445, 0, 0
Line.1CF_1165, -1.168491E-006, -0.1400024, -1.168491E-006, -0.1400024, 0, 0
Line.20CF_1096, 2.803092E-007, -0.07692223, 2.803092E-007, -0.07692223, 0, 0
Line.20CF_1149, 0.0001071781, -0.2222076, 0.0001071781, -0.2222076, 0, 0
Line.20CF_1150, 2.25015E-005, -0.07031899, 2.25015E-005, -0.07031899, 0, 0
Line.20CF_1151, 1.728394E-005, -0.07054049, 1.728394E-005, -0.07054049, 0, 0
Line.20CF_1339, 1.204899E-005, -0.0766875, 1.204899E-005, -0.0766875, 0, 0
Line.20CF_1377, -2.257728E-006, -0.07137468, -2.257728E-006, -0.07137468, 0, 0
Line.20CF_1383, 0.001519814, -0.07071621, 0.001519814, -0.07071621, 0, 0
Line.20CF_1384, 0.0005317367, -0.07168169, 0.0005317367, -0.07168169, 0, 0
Line.20CF_1386, 0.001429127, -0.0707922, 0.001429127, -0.0707922, 0, 0
Line.20CF_1387, 0.0003555721, -0.071878, 0.0003555721, -0.071878, 0, 0
Line.20CF_1425, 5.06971E-005, -0.220988, 5.06971E-005, -0.220988, 0, 0
Line.20CF_1446, -4.498863E-006, -0.07690878, -4.498863E-006, -0.07690878, 0, 0
Line.20CF_1915, 1.834701E-005, -0.07672262, 1.834701E-005, -0.07672262, 0, 0
Line.20CF_1925, 1.177823E-005, -0.220506, 1.177823E-005, -0.220506, 0, 0
Line.20CF_1938, 0.0002059494, -0.2212549, 0.0002059494, -0.2212549, 0, 0
Line.20CF_466, 5.537892E-006, -0.212576, 5.537892E-006, -0.212576, 0, 0
Line.20CF_468, 7.986745E-005, -0.2220138, 7.986745E-005, -0.2220138, 0, 0
Line.20CF_470, 0.0003934892, -0.2214597, 0.0003934892, -0.2214597, 0, 0
Line.20CF_471, 0.001874286, -0.219928, 0.001874286, -0.219928, 0, 0
Line.20CF_473, 7.652584E-006, -0.2214845, 7.652584E-006, -0.2214845, 0, 0
Line.20CF_474, 0.0002144888, -0.2210984, 0.0002144888, -0.2210984, 0, 0
Line.20CF_475, 1.928352E-005, -0.07679542, 1.928352E-005, -0.07679542, 0, 0
Line.20CF_476, 0.05976336, -0.1608672, 0.05976336, -0.1608672, 0, 0
Line.20CF_479, 2.77094E-006, -0.1416416, 2.77094E-006, -0.1416416, 0, 0
Line.20CF_483, 6.674664E-005, -0.2201911, 6.674664E-005, -0.2201911, 0, 0
Line.20CF_486, 3.897894E-005, -0.07126863, 3.897894E-005, -0.07126863, 0, 0
Line.20CF_487, 1.591023E-006, -0.07665824, 1.591023E-006, -0.07665824, 0, 0
Line.20CF_698, 0.0002810749, -0.2201563, 0.0002810749, -0.2201563, 0, 0
Line.20CF_729, 1.08859E-006, -0.0767253, 1.08859E-006, -0.0767253, 0, 0
Line.20CF_817, 0.0001045555, -0.2218278, 0.0001045555, -0.2218278, 0, 0
Line.20CF_910, -2.43256E-005, -0.2132748, -2.43256E-005, -0.2132748, 0, 0
Line.20CS_1108, 0.08706841, -0.1350306, 0.08706841, -0.1350306, 0, 0
Line.20CS_1289, 1.119986, 0.8978715, 1.119986, 0.8978715, 0, 0
Line.20CS_1659, 1.544974E-005, -0.2220882, 1.544974E-005, -0.2220882, 0, 0
Line.20CS_276, 0.6449418, 0.4242805, 0.6449418, 0.4242805, 0, 0
Line.20CS_467, 2.367561, 2.155516, 2.367561, 2.155516, 0, 0
Line.20CS_482, 0.001023676, -0.1455577, 0.001023676, -0.1455577, 0, 0
Line.20CS_697, 0.0005243215, -0.2198747, 0.0005243215, -0.2198747, 0, 0
Line.20FR_1246, 0.000538873, -0.2198516, 0.000538873, -0.2198516, 0, 0
Line.20FR_1877, 0.0005347082, -0.219867, 0.0005347082, -0.219867, 0, 0
Line.20FR_469, 0.001654956, -0.070291, 0.001654956, -0.070291, 0, 0
Line.20FR_477, 0.01871383, -0.2018545, 0.01871383, -0.2018545, 0, 0
Line.20FR_480, 9.126255E-006, -0.1466397, 9.126255E-006, -0.1466397, 0, 0
Line.20FR_484, 0.0002294602, -0.07202289, 0.0002294602, -0.07202289, 0, 0
Line.20FR_999, 0.002369586, -0.2191219, 0.002369586, -0.2191219, 0, 0
Line.20FS_481, 0.006589521, -0.06570974, 0.006589521, -0.06570974, 0, 0
Line.20FS_699, 0.01608825, -0.05624361, 0.01608825, -0.05624361, 0, 0
Line.20RL_1579, 2.005655, 1.783261, 2.005655, 1.783261, 0, 0
Line.20RL_472, 0.7894904, 0.5678317, 0.7894904, 0.5678317, 0, 0
Line.20SA_478, 0.2369612, 0.01643655, 0.2369612, 0.01643655, 0, 0
Line.22CF_1024, 0.002227208, -0.2129362, 0.002227208, -0.2129362, 0, 0
Line.22CF_1101, 2.154331E-005, -0.07180501, 2.154331E-005, -0.07180501, 0, 0
Line.22CF_1186, 0.006485867, -0.2064267, 0.006485867, -0.2064267, 0, 0
Line.22CF_1272, 0.001912081, -0.2130528, 0.001912081, -0.2130528, 0, 0
Line.22CF_1349, -1.035747E-005, -0.2158613, -1.035747E-005, -0.2158613, 0, 0
Line.22CF_1354, 0.0001002004, -0.2162297, 0.0001002004, -0.2162297, 0, 0
Line.22CF_1435, 6.031004E-005, -0.2127337, 6.031004E-005, -0.2127337, 0, 0
Line.22CF_1445, 7.303172E-005, -0.07186468, 7.303172E-005, -0.07186468, 0, 0
Line.22CF_1447, -4.110435E-005, -0.2155876, -4.110435E-005, -0.2155876, 0, 0
Line.22CF_1475, 1.05985E-005, -0.07078335, 1.05985E-005, -0.07078335, 0, 0
Line.22CF_1510, 1.622001E-005, -0.2163845, 1.622001E-005, -0.2163845, 0, 0
Line.22CF_1681, 6.176074E-005, -0.2128075, 6.176074E-005, -0.2128075, 0, 0
Line.22CF_1708, 1.168868E-005, -0.2156063, 1.168868E-005, -0.2156063, 0, 0
Line.22CF_1742, -1.029359E-005, -0.2135635, -1.029359E-005, -0.2135635, 0, 0
Line.22CF_1744, -1.63946E-005, -0.2153587, -1.63946E-005, -0.2153587, 0, 0
Line.22CF_1814, 1.461298E-005, -0.07189665, 1.461298E-005, -0.07189665, 0, 0
Line.22CF_223, -6.878234E-006, -0.2133238, -6.878234E-006, -0.2133238, 0, 0
Line.22CF_232, -1.125524E-005, -0.2156713, -1.125524E-005, -0.2156713, 0, 0
Line.22CF_275, 6.598852E-005, -0.07150862, 6.598852E-005, -0.07150862, 0, 0
Line.22CF_442, 0.0002970675, -0.2158083, 0.0002970675, -0.2158083, 0, 0
Line.22CF_447, 0.000232075, -0.2130122, 0.000232075, -0.2130122, 0, 0
Line.22CF_448, 1.560586E-005, -0.2132257, 1.560586E-005, -0.2132257, 0, 0
Line.22CF_453, 3.654284E-005, -0.1401073, 3.654284E-005, -0.1401073, 0, 0
Line.22CF_454, -8.179703E-006, -0.07040514, -8.179703E-006, -0.07040514, 0, 0
Line.22CF_460, 6.446674E-005, -0.07175739, 6.446674E-005, -0.07175739, 0, 0
Line.22CF_462, 3.795312E-005, -0.2132884, 3.795312E-005, -0.2132884, 0, 0
Line.22CF_464, 0.0002787527, -0.2130307, 0.0002787527, -0.2130307, 0, 0
Line.22CF_465, 0.0001859213, -0.2130185, 0.0001859213, -0.2130185, 0, 0
Line.22CF_598, 1.847039E-005, -0.217043, 1.847039E-005, -0.217043, 0, 0
Line.22CF_599, 7.731262E-005, -0.216535, 7.731262E-005, -0.216535, 0, 0
Line.22CF_773, 0.00519548, -0.2098202, 0.00519548, -0.2098202, 0, 0
Line.22CF_824, 1.492624E-005, -0.2158043, 1.492624E-005, -0.2158043, 0, 0
Line.22CF_931, 0.002146725, -0.2111231, 0.002146725, -0.2111231, 0, 0
Line.22CF_946, 1.864084E-005, -0.2151742, 1.864084E-005, -0.2151742, 0, 0
Line.22CF_962, -1.051892E-005, -0.2132792, -1.051892E-005, -0.2132792, 0, 0
Line.22CS_1320, 2.382626, 2.169501, 2.382626, 2.169501, 0, 0
Line.22CS_1497, 5.251567, 5.035839, 5.251567, 5.035839, 0, 0
Line.22CS_452, 0.01281752, -0.2001783, 0.01281752, -0.2001783, 0, 0
Line.22CS_987, 3.397507, 3.183493, 3.397507, 3.183493, 0, 0
Line.22FR_1048, 4.716493E-005, -0.07057573, 4.716493E-005, -0.07057573, 0, 0
Line.22FR_444, 0.009830383, -0.205282, 0.009830383, -0.205282, 0, 0
Line.22FR_446, 0.04719387, -0.1662484, 0.04719387, -0.1662484, 0, 0
Line.22FR_449, 0.0008934208, -0.06983054, 0.0008934208, -0.06983054, 0, 0
Line.22FR_450, 0.001693587, -0.2113168, 0.001693587, -0.2113168, 0, 0
Line.22FR_455, 0.001036555, -0.06937174, 0.001036555, -0.06937174, 0, 0
Line.22FR_769, 0.005919163, -0.2074442, 0.005919163, -0.2074442, 0, 0
Line.22FR_952, 0.0001621546, -0.212729, 0.0001621546, -0.212729, 0, 0
Line.22RL_1122, 5.196829, 4.98151, 5.196829, 4.98151, 0, 0
Line.27CF_1214, 0.00168312, -0.06880972, 0.00168312, -0.06880972, 0, 0
Line.27CF_1264, 0.0004879857, -0.07017269, 0.0004879857, -0.07017269, 0, 0
Line.27CF_1824, 8.80908E-006, -0.2199266, 8.80908E-006, -0.2199266, 0, 0
Line.27CF_1826, -7.629183E-006, -0.07654671, -7.629183E-006, -0.07654671, 0, 0
Line.27CF_1924, 0.001466261, -0.2178449, 0.001466261, -0.2178449, 0, 0
Line.27CF_292, 0.0002506241, -0.0707114, 0.0002506241, -0.0707114, 0, 0
Line.27CF_489, 7.648494E-005, -0.1463257, 7.648494E-005, -0.1463257, 0, 0
Line.27CF_492, 3.557818E-005, -0.2192665, 3.557818E-005, -0.2192665, 0, 0
Line.27CF_493, 0.04041923, -0.1789259, 0.04041923, -0.1789259, 0, 0
Line.27CF_496, 0.02732816, -0.04332017, 0.02732816, -0.04332017, 0, 0
Line.27CF_993, 1.261E-005, -0.2193357, 1.261E-005, -0.2193357, 0, 0
Line.27CS_1822, 0.004230286, -0.2155609, 0.004230286, -0.2155609, 0, 0
Line.27CS_1823, 0.004276638, -0.2155176, 0.004276638, -0.2155176, 0, 0
Line.27CS_491, 0.157309, -0.0622087, 0.157309, -0.0622087, 0, 0
Line.27FR_200, 0.000326988, -0.07051162, 0.000326988, -0.07051162, 0, 0
Line.27FR_488, 2.453859E-005, -0.07108155, 2.453859E-005, -0.07108155, 0, 0
Line.27FR_848, 0.004425327, -0.2154687, 0.004425327, -0.2154687, 0, 0
Line.27FS_495, 0.03492145, -0.03573107, 0.03492145, -0.03573107, 0, 0
Line.31CF_1765, -9.354264E-006, -0.0704004, -9.354264E-006, -0.0704004, 0, 0
Line.5CF_1066, -5.411275E-006, -0.07276236, -5.411275E-006, -0.07276236, 0, 0
Line.5CF_1136, 0.0002479745, -0.2182981, 0.0002479745, -0.2182981, 0, 0
Line.5CF_1322, 4.545618E-006, -0.0726874, 4.545618E-006, -0.0726874, 0, 0
Line.5CF_1573, 3.591617E-005, -0.2191249, 3.591617E-005, -0.2191249, 0, 0
Line.5CF_174, 5.347353E-005, -0.07270535, 5.347353E-005, -0.07270535, 0, 0
Line.5CF_196, 2.801705E-005, -0.07272863, 2.801705E-005, -0.07272863, 0, 0
Line.5CF_58, 2.878563E-005, -0.1439656, 2.878563E-005, -0.1439656, 0, 0
Line.5CF_60, -1.140525E-006, -0.1434269, -1.140525E-006, -0.1434269, 0, 0
Line.5CF_61, 6.204141E-006, -0.07272852, 6.204141E-006, -0.07272852, 0, 0
Line.5CF_714, -2.874136E-005, -0.2188957, -2.874136E-005, -0.2188957, 0, 0
Line.5CF_782, -4.474011E-006, -0.07358265, -4.474011E-006, -0.07358265, 0, 0
Line.5CF_914, 1.869318E-005, -0.07347859, 1.869318E-005, -0.07347859, 0, 0
Line.5CF_948, -7.389576E-006, -0.0727298, -7.389576E-006, -0.0727298, 0, 0
Line.5CS_744, 0.01326839, -0.205602, 0.01326839, -0.205602, 0, 0
Line.5FR_18, 0.001001203, -0.07159063, 0.001001203, -0.07159063, 0, 0
Line.5FR_59, 0.0001137352, -0.07279008, 0.0001137352, -0.07279008, 0, 0
Line.5FR_62, 0.006849366, -0.2120146, 0.006849366, -0.2120146, 0, 0
Line.5FR_719, 0.02324059, -0.1961535, 0.02324059, -0.1961535, 0, 0
Line.5FS_724, 0.0001738579, -0.07283025, 0.0001738579, -0.07283025, 0, 0
Line.SMT_10000, 0.3550556, -80.22319, 0.3550556, -80.22319, 0, 0
Line.SMT_10009, 0.1323706, -14.35616, 0.1323706, -14.35616, 0, 0
Line.SMT_10010, 0.001766225, -33.09117, 0.001766225, -33.09117, 0, 0
Line.SMT_10011, 0.001932785, -27.35674, 0.001932785, -27.35674, 0, 0
Line.SMT_10013, 0.06115182, -36.15693, 0.06115182, -36.15693, 0, 0
Line.SMT_10014, -8.059318E-007, -29.70223, -8.059318E-007, -29.70223, 0, 0
Line.SMT_10024, 101.8723, 32.10953, 101.8723, 32.10953, 0, 0
Line.SMT_10025, 14.29564, -9.738175, 14.29564, -9.738175, 0, 0
Line.SMT_10026, 0.0004823523, -17.6355, 0.0004823523, -17.6355, 0, 0
Line.SMT_10027, 0.002453985, -84.6743, 0.002453985, -84.6743, 0, 0
Line.SMT_10028, 0.003201878, -15.68793, 0.003201878, -15.68793, 0, 0
Line.SMT_10037, 117.2782, 116.5973, 117.2782, 116.5973, 0, 0
Line.SMT_10042, 0.02821839, -94.65409, 0.02821839, -94.65409, 0, 0
Line.SMT_10044, 48.44254, 6.162439, 48.44254, 6.162439, 0, 0
Line.SMT_10046, 0.001136481, -17.99794, 0.001136481, -17.99794, 0, 0
Line.SMT_10050, 0.006975028, -54.20628, 0.006975028, -54.20628, 0, 0
Line.SMT_10051, 2.989067, -49.53547, 2.989067, -49.53547, 0, 0
Line.SMT_10052, 116.1114, 36.47721, 116.1114, 36.47721, 0, 0
Line.SMT_10057, 0.001322746, -68.91525, 0.001322746, -68.91525, 0, 0
Line.SMT_10058, 6.028749E-008, -38.56276, 6.028749E-008, -38.56276, 0, 0
Line.SMT_10059, 0.1913222, -47.53084, 0.1913222, -47.53084, 0, 0
Line.SMT_10060, 0.0001731793, -19.53382, 0.0001731793, -19.53382, 0, 0
Line.SMT_10062, 0.001357617, -49.55305, 0.001357617, -49.55305, 0, 0
Line.SMT_10064, 0.0002905324, -30.18544, 0.0002905324, -30.18544, 0, 0
Line.SMT_10065, 0.1065134, -44.20311, 0.1065134, -44.20311, 0, 0
Line.SMT_10067, 0.004809247, -28.70857, 0.004809247, -28.70857, 0, 0
Line.SMT_10071, 0.05610763, -9.501174, 0.05610763, -9.501174, 0, 0
Line.SMT_10073, 39.92438, 5.854546, 39.92438, 5.854546, 0, 0
Line.SMT_10079, 0.01621423, -53.60653, 0.01621423, -53.60653, 0, 0
Line.SMT_10081, 94.98238, 29.88899, 94.98238, 29.88899, 0, 0
Line.SMT_10083, 0.01359095, -23.60727, 0.01359095, -23.60727, 0, 0
Line.SMT_10085, 0.003961574, -19.36255, 0.003961574, -19.36255, 0, 0
Line.SMT_10086, 0.1579181, -65.46749, 0.1579181, -65.46749, 0, 0
Line.SMT_10089, 0.0001364595, -11.73574, 0.0001364595, -11.73574, 0, 0
Line.SMT_10092, 0.4474555, -48.27878, 0.4474555, -48.27878, 0, 0
Line.SMT_10096, 0.002784916, -16.43631, 0.002784916, -16.43631, 0, 0
Line.SMT_10097, 0.1243435, -51.73205, 0.1243435, -51.73205, 0, 0
Line.SMT_10099, 0.04018124, -62.60605, 0.04018124, -62.60605, 0, 0
Line.SMT_1010, 0.004240463, -18.86025, 0.004240463, -18.86025, 0, 0
Line.SMT_10105, 0.0003028237, -23.15081, 0.0003028237, -23.15081, 0, 0
Line.SMT_10106, 0.02081963, -50.96732, 0.02081963, -50.96732, 0, 0
Line.SMT_10109, 2.713392, -56.54493, 2.713392, -56.54493, 0, 0
Line.SMT_10110, 0.0008119861, -40.97597, 0.0008119861, -40.97597, 0, 0
Line.SMT_10111, 0.1070975, -42.5075, 0.1070975, -42.5075, 0, 0
Line.SMT_10112, 0.004904176, -23.80554, 0.004904176, -23.80554, 0, 0
Line.SMT_10115, 0.0009245107, -21.68333, 0.0009245107, -21.68333, 0, 0
Line.SMT_10117, 0.0007717253, -58.70167, 0.0007717253, -58.70167, 0, 0
Line.SMT_10120, 0.7386412, -69.63423, 0.7386412, -69.63423, 0, 0
Line.SMT_10124, 0.1592011, -34.50914, 0.1592011, -34.50914, 0, 0
Line.SMT_10126, 2.476329, -51.62605, 2.476329, -51.62605, 0, 0
Line.SMT_10129, 0.03693766, -68.69064, 0.03693766, -68.69064, 0, 0
Line.SMT_10137, 83.74952, 26.36759, 83.74952, 26.36759, 0, 0
Line.SMT_10138, 2.135749, -44.64893, 2.135749, -44.64893, 0, 0
Line.SMT_10139, 0.01017629, -38.09245, 0.01017629, -38.09245, 0, 0
Line.SMT_10140, 0.2482986, -70.26149, 0.2482986, -70.26149, 0, 0
Line.SMT_10141, 0.001204006, -63.72831, 0.001204006, -63.72831, 0, 0
Line.SMT_10142, 6.817585E-005, -25.35818, 6.817585E-005, -25.35818, 0, 0
Line.SMT_10145, 0.01799646, -48.14607, 0.01799646, -48.14607, 0, 0
Line.SMT_10147, 0.2736536, -70.85977, 0.2736536, -70.85977, 0, 0
Line.SMT_10149, 99.27827, 31.30869, 99.27827, 31.30869, 0, 0
Line.SMT_10155, 0.003874337, -39.37728, 0.003874337, -39.37728, 0, 0
Line.SMT_10161, 0.0257708, -53.00454, 0.0257708, -53.00454, 0, 0
Line.SMT_10164, 0.03427875, -83.75505, 0.03427875, -83.75505, 0, 0
Line.SMT_10165, 52.14175, 16.42222, 52.14175, 16.42222, 0, 0
Line.SMT_10166, 0.001130779, -17.77698, 0.001130779, -17.77698, 0, 0
Line.SMT_10169, 3.171904, -55.23544, 3.171904, -55.23544, 0, 0
Line.SMT_10170, 70.43961, 22.08558, 70.43961, 22.08558, 0, 0
Line.SMT_10171, 0.6327362, -41.35007, 0.6327362, -41.35007, 0, 0
Line.SMT_10172, 1.935996, -56.357, 1.935996, -56.357, 0, 0
Line.SMT_10176, 0.02362352, -57.65106, 0.02362352, -57.65106, 0, 0
Line.SMT_10178, 2.413269, -64.17161, 2.413269, -64.17161, 0, 0
Line.SMT_10183, 2.734667, -55.49493, 2.734667, -55.49493, 0, 0
Line.SMT_10184, 4.447515E-006, -21.29475, 4.447515E-006, -21.29475, 0, 0
Line.SMT_10188, 0.0005407675, -58.58125, 0.0005407675, -58.58125, 0, 0
Line.SMT_10195, 2.225375E-006, -27.14178, 2.225375E-006, -27.14178, 0, 0
Line.SMT_10196, 0.4676195, -50.51705, 0.4676195, -50.51705, 0, 0
Line.SMT_10200, 0.02103729, -56.16621, 0.02103729, -56.16621, 0, 0
Line.SMT_10202, 0.003741834, -49.59691, 0.003741834, -49.59691, 0, 0
Line.SMT_10209, 0.0004729336, -25.69247, 0.0004729336, -25.69247, 0, 0
Line.SMT_10213, 0.039727, -73.37507, 0.039727, -73.37507, 0, 0
Line.SMT_10217, 114.9551, 36.11838, 114.9551, 36.11838, 0, 0
Line.SMT_10220, 0.03471488, -55.20903, 0.03471488, -55.20903, 0, 0
Line.SMT_10225, 0.004006667, -24.50301, 0.004006667, -24.50301, 0, 0
Line.SMT_10227, 0.0003723543, -19.21268, 0.0003723543, -19.21268, 0, 0
Line.SMT_10229, 0.05785751, -106.5382, 0.05785751, -106.5382, 0, 0
Line.SMT_10230, 0.002145398, -10.50008, 0.002145398, -10.50008, 0, 0
Line.SMT_10232, 0.1524382, -35.27684, 0.1524382, -35.27684, 0, 0
Line.SMT_10233, 0.0002042495, -22.19996, 0.0002042495, -22.19996, 0, 0
Line.SMT_10234, 0.3456244, -79.77749, 0.3456244, -79.77749, 0, 0
Line.SMT_10236, 0.1239482, -13.44449, 0.1239482, -13.44449, 0, 0
Line.SMT_10237, 0.02510714, -51.52112, 0.02510714, -51.52112, 0, 0
Line.SMT_10246, 113.604, 35.72881, 113.604, 35.72881, 0, 0
Line.SMT_10247, 0.0546117, -14.07181, 0.0546117, -14.07181, 0, 0
Line.SMT_10249, 7.637337E-006, -18.32201, 7.637337E-006, -18.32201, 0, 0
Line.SMT_10256, 0.004346493, -29.80656, 0.004346493, -29.80656, 0, 0
Line.SMT_10257, 0.002565574, -36.85525, 0.002565574, -36.85525, 0, 0
Line.SMT_10258, 0.236574, -67.04459, 0.236574, -67.04459, 0, 0
Line.SMT_10260, 3.738755E-005, -14.20761, 3.738755E-005, -14.20761, 0, 0
Line.SMT_10261, 0.003985343, -40.78787, 0.003985343, -40.78787, 0, 0
Line.SMT_10262, 0.002449176, -52.49148, 0.002449176, -52.49148, 0, 0
Line.SMT_10267, 0.01795076, -48.04099, 0.01795076, -48.04099, 0, 0
Line.SMT_10279, 2.134533, -53.87224, 2.134533, -53.87224, 0, 0
Line.SMT_10280, 133.0596, 41.92827, 133.0596, 41.92827, 0, 0
Line.SMT_10281, 0.02550515, -57.00248, 0.02550515, -57.00248, 0, 0
Line.SMT_10282, 0.257886, -66.6848, 0.257886, -66.6848, 0, 0
Line.SMT_10288, 0.0005837974, -16.60703, 0.0005837974, -16.60703, 0, 0
Line.SMT_10290, 0.08108911, -49.47676, 0.08108911, -49.47676, 0, 0
Line.SMT_10291, 3.964175, -63.99495, 3.964175, -63.99495, 0, 0
Line.SMT_10292, 3.084458, -64.45371, 3.084458, -64.45371, 0, 0
Line.SMT_10294, 0.002953055, -15.99289, 0.002953055, -15.99289, 0, 0
Line.SMT_10295, 0.1746165, -43.31635, 0.1746165, -43.31635, 0, 0
Line.SMT_10298, 0.008700486, -15.10698, 0.008700486, -15.10698, 0, 0
Line.SMT_10300, 0.02872821, -68.72435, 0.02872821, -68.72435, 0, 0
Line.SMT_10302, 0.02054061, -52.52498, 0.02054061, -52.52498, 0, 0
Line.SMT_1031, 0.02258416, -56.25389, 0.02258416, -56.25389, 0, 0
Line.SMT_10318, 0.005094144, -19.32327, 0.005094144, -19.32327, 0, 0
Line.SMT_10326, 3.766372, -65.54407, 3.766372, -65.54407, 0, 0
Line.SMT_10327, 0.0001401851, -66.48294, 0.0001401851, -66.48294, 0, 0
Line.SMT_10339, 0.1471999, -59.61145, 0.1471999, -59.61145, 0, 0
Line.SMT_10344, 0.01808289, -20.85248, 0.01808289, -20.85248, 0, 0
Line.SMT_10354, 0.1801444, -74.72245, 0.1801444, -74.72245, 0, 0
Line.SMT_10358, 0.2290489, -58.82732, 0.2290489, -58.82732, 0, 0
Line.SMT_10361, 0.0005711283, -42.14477, 0.0005711283, -42.14477, 0, 0
Line.SMT_10362, 0.0002482307, -22.63283, 0.0002482307, -22.63283, 0, 0
Line.SMT_10363, 0.4685446, -50.51182, 0.4685446, -50.51182, 0, 0
Line.SMT_10365, 1.516213, -128.3699, 1.516213, -128.3699, 0, 0
Line.SMT_10366, 210.3681, 45.82835, 210.3681, 45.82835, 0, 0
Line.SMT_10369, 0.000190321, -17.26302, 0.000190321, -17.26302, 0, 0
Line.SMT_10370, 0.7118429, -35.40437, 0.7118429, -35.40437, 0, 0
Line.SMT_10373, 0.0008600575, -44.21221, 0.0008600575, -44.21221, 0, 0
Line.SMT_10374, 0.2201298, -54.6465, 0.2201298, -54.6465, 0, 0
Line.SMT_10376, 3.601887, -59.67996, 3.601887, -59.67996, 0, 0
Line.SMT_10382, 0.1084827, -18.36753, 0.1084827, -18.36753, 0, 0
Line.SMT_10390, 0.1140388, -66.21256, 0.1140388, -66.21256, 0, 0
Line.SMT_10394, 0.0009285677, -56.1775, 0.0009285677, -56.1775, 0, 0
Line.SMT_10398, 0.01488815, -42.13099, 0.01488815, -42.13099, 0, 0
Line.SMT_10403, 0.2023473, -21.94234, 0.2023473, -21.94234, 0, 0
Line.SMT_10407, 3.246508, -56.50928, 3.246508, -56.50928, 0, 0
Line.SMT_10408, 0.3141456, -71.18232, 0.3141456, -71.18232, 0, 0
Line.SMT_10411, 3.11198, -51.54132, 3.11198, -51.54132, 0, 0
Line.SMT_10414, 0.04458209, -69.35596, 0.04458209, -69.35596, 0, 0
Line.SMT_10421, 0.002024726, -31.34729, 0.002024726, -31.34729, 0, 0
Line.SMT_10430, 0.645296, -54.67179, 0.645296, -54.67179, 0, 0
Line.SMT_10431, 0.3693025, -23.20327, 0.3693025, -23.20327, 0, 0
Line.SMT_10436, 0.03086917, -32.5215, 0.03086917, -32.5215, 0, 0
Line.SMT_10438, 0.03350089, -22.13339, 0.03350089, -22.13339, 0, 0
Line.SMT_10439, 0.5977304, -56.55366, 0.5977304, -56.55366, 0, 0
Line.SMT_10443, 0.03032516, -2.587961, 0.03032516, -2.587961, 0, 0
Line.SMT_10448, 0.06886226, -1.112293, 0.06886226, -1.112293, 0, 0
Line.SMT_10449, 0.04459803, -58.20674, 0.04459803, -58.20674, 0, 0
Line.SMT_10451, 0.01530943, -19.53776, 0.01530943, -19.53776, 0, 0
Line.SMT_10454, 6.911831, -47.03861, 6.911831, -47.03861, 0, 0
Line.SMT_10458, 0.6233756, -58.72543, 0.6233756, -58.72543, 0, 0
Line.SMT_10459, 0.0360829, -67.09812, 0.0360829, -67.09812, 0, 0
Line.SMT_10462, 76.04847, 12.10954, 76.04847, 12.10954, 0, 0
Line.SMT_10467, 0.007406483, -46.52801, 0.007406483, -46.52801, 0, 0
Line.SMT_10469, 0.1085244, -153.4615, 0.1085244, -153.4615, 0, 0
Line.SMT_10472, 0.001003543, -59.70952, 0.001003543, -59.70952, 0, 0
Line.SMT_10477, 0.2626498, -67.8248, 0.2626498, -67.8248, 0, 0
Line.SMT_10478, 0.01771846, -7.710115, 0.01771846, -7.710115, 0, 0
Line.SMT_10480, 0.0001232336, -13.13543, 0.0001232336, -13.13543, 0, 0
Line.SMT_10481, 1.005132, -85.20336, 1.005132, -85.20336, 0, 0
Line.SMT_10485, 0.0006518112, -42.40797, 0.0006518112, -42.40797, 0, 0
Line.SMT_10494, 0.5354044, -45.68537, 0.5354044, -45.68537, 0, 0
Line.SMT_10495, 0.2470865, -63.3851, 0.2470865, -63.3851, 0, 0
Line.SMT_10504, 0.00491511, -18.55853, 0.00491511, -18.55853, 0, 0
Line.SMT_10505, 3.503804E-005, -18.64337, 3.503804E-005, -18.64337, 0, 0
Line.SMT_10507, 0.5491139, -51.94078, 0.5491139, -51.94078, 0, 0
Line.SMT_10509, 0.01743444, -57.12503, 0.01743444, -57.12503, 0, 0
Line.SMT_10513, 0.002867799, -9.364848, 0.002867799, -9.364848, 0, 0
Line.SMT_10515, 0.01746211, -56.8807, 0.01746211, -56.8807, 0, 0
Line.SMT_10516, 0.02248995, -38.26682, 0.02248995, -38.26682, 0, 0
Line.SMT_10518, 0.001127674, -55.15499, 0.001127674, -55.15499, 0, 0
Line.SMT_10520, 0.0199182, -65.0595, 0.0199182, -65.0595, 0, 0
Line.SMT_10521, 0.0001806577, -26.25532, 0.0001806577, -26.25532, 0, 0
Line.SMT_10522, 0.01358578, -39.24213, 0.01358578, -39.24213, 0, 0
Line.SMT_10523, 0.02659813, -17.69054, 0.02659813, -17.69054, 0, 0
Line.SMT_10528, 0.001165273, -62.2257, 0.001165273, -62.2257, 0, 0
Line.SMT_10529, 3.712955, -59.92667, 3.712955, -59.92667, 0, 0
Line.SMT_10532, 0.009954078, -62.25031, 0.009954078, -62.25031, 0, 0
Line.SMT_10535, 0.03710705, -69.0127, 0.03710705, -69.0127, 0, 0
Line.SMT_10543, 8.704278, -59.2493, 8.704278, -59.2493, 0, 0
Line.SMT_10546, 1.32702, -49.03186, 1.32702, -49.03186, 0, 0
Line.SMT_10549, 1.049441, -59.44842, 1.049441, -59.44842, 0, 0
Line.SMT_10550, 5.957592E-005, -21.49704, 5.957592E-005, -21.49704, 0, 0
Line.SMT_10551, 0.01417894, -46.70943, 0.01417894, -46.70943, 0, 0
Line.SMT_10552, 1.727947E-007, -19.54757, 1.727947E-007, -19.54757, 0, 0
Line.SMT_10555, 0.001766941, -44.11749, 0.001766941, -44.11749, 0, 0
Line.SMT_10558, 0.02435021, -60.01899, 0.02435021, -60.01899, 0, 0
Line.SMT_10562, 0.01250094, -21.30055, 0.01250094, -21.30055, 0, 0
Line.SMT_10569, 0.03343315, -19.76052, 0.03343315, -19.76052, 0, 0
Line.SMT_10570, 9.402853E-005, -1.146389, 9.402853E-005, -1.146389, 0, 0
Line.SMT_10572, 0.0004897322, -32.77135, 0.0004897322, -32.77135, 0, 0
Line.SMT_10574, 4.145702, -72.17707, 4.145702, -72.17707, 0, 0
Line.SMT_10575, 0.7553106, -13.35397, 0.7553106, -13.35397, 0, 0
Line.SMT_10578, 0.001195752, -59.16162, 0.001195752, -59.16162, 0, 0
Line.SMT_10580, 0.004782465, -23.27507, 0.004782465, -23.27507, 0, 0
Line.SMT_10583, 0.1630325, -67.75439, 0.1630325, -67.75439, 0, 0
Line.SMT_10584, 0.003273573, -32.86165, 0.003273573, -32.86165, 0, 0
Line.SMT_10585, 1.777829, -56.2401, 1.777829, -56.2401, 0, 0
...
Transformer.REG_20_9718A, 10310.53, 1016.204, 9991.936, 1016.204, 318.5905, 1.421085E-014
Transformer.REG_20_9718B, 14912.53, 1484.718, 14599, 1484.718, 313.5252, 0
Transformer.REG_20_9718C, 36110.46, 3642.611, 35818.29, 3642.611, 292.1625, -2.131628E-014
Transformer.TRF_1_1277A, 57.69793, 38.77422, 10.00947, 38.77422, 47.68846, -1.197013E-015
Line.RESIST_MTR_TRF_1_1277A, 0.4948947, -0.2219676, 0.4948947, -0.2219676, 0, 0
Reactor.TRF_1_1277A_R, 1.056328E-007, 0, 1.056328E-007, 0, 0, 0
Transformer.TRF_1_1676A, 64.53845, 25.42379, 3.131928, 25.42379, 61.40653, -9.096456E-017
Line.RESIST_MTR_TRF_1_1676A, 0.330327, -0.217361, 0.330327, -0.217361, 0, 0
Reactor.TRF_1_1676A_R, 9.135008E-008, -1.033976E-025, 9.135008E-008, -1.033976E-025, 0, 0
Transformer.TRF_1_2803A, 48.70432, 0.4140197, 0.109914, 0.4140197, 48.59441, -1.528752E-015
Line.RESIST_MTR_TRF_1_2803A, 0.004752142, -0.2220147, 0.004752142, -0.2220147, 0, 0
Reactor.TRF_1_2803A_R, 1.075065E-008, -8.271806E-025, 1.075065E-008, -8.271806E-025, 0, 0
Transformer.TRF_1_3554A, 63.75522, 6.462556, 0.7330772, 6.462556, 63.02214, -5.821081E-016
Line.RESIST_MTR_TRF_1_3554A, 0.07882004, -0.2219915, 0.07882004, -0.2219915, 0, 0
Reactor.TRF_1_3554A_R, 1.674114E-008, 0, 1.674114E-008, 0, 0, 0
Transformer.TRF_1_4818A, 63.89516, 22.37479, 2.409208, 22.37479, 61.48596, -3.973601E-017
Line.RESIST_MTR_TRF_1_4818A, 0.2624227, -0.2173695, 0.2624227, -0.2173695, 0, 0
Reactor.TRF_1_4818A_R, 3.048844E-008, 0, 3.048844E-008, 0, 0, 0
Transformer.TRF_1_494A, 61.9848, 0.04740902, 0.004744918, 0.04740902, 61.98006, -7.009367E-017
Line.RESIST_MTR_TRF_1_494A, 0.0003397476, -0.2174305, 0.0003397476, -0.2174305, 0, 0
Reactor.TRF_1_494A_R, 1.140374E-007, -2.067952E-025, 1.140374E-007, -2.067952E-025, 0, 0
Transformer.TRF_1_4943A, 47.75061, 0.746259, 0.202581, 0.746259, 47.54803, 3.184844E-017
Line.RESIST_MTR_TRF_1_4943A, 0.008759124, -0.2174089, 0.008759124, -0.2174089, 0, 0
Reactor.TRF_1_4943A_R, 2.358755E-008, 0, 2.358755E-008, 0, 0, 0
Transformer.TRF_1_497A, 72.37891, 3.841791, 0.6031746, 3.841791, 71.77573, 2.277692E-015
Reactor.TRF_1_497A_R, 1.256677E-008, -8.271806E-025, 1.256677E-008, -8.271806E-025, 0, 0
Transformer.TRF_17_1077A, 64.46972, 0.2833379, 0.06400255, 0.2833379, 64.40571, 1.254964E-017
Line.RESIST_MTR_TRF_17_1077A, 0.004581426, -0.2261699, 0.004581426, -0.2261699, 0, 0
Reactor.TRF_17_1077A_R, 2.470221E-008, 0, 2.470221E-008, 0, 0, 0
Transformer.TRF_17_1078A, 65.32051, 8.28195, 1.260563, 8.28195, 64.05995, -5.540273E-017
Line.RESIST_MTR_TRF_17_1078A, 0.1252104, -0.225986, 0.1252104, -0.225986, 0, 0
Reactor.TRF_17_1078A_R, 1.585116E-008, 2.584939E-026, 1.585116E-008, 2.584939E-026, 0, 0
Transformer.TRF_17_1080A, 50.44479, 5.919292, 1.22058, 5.919292, 49.22421, -2.796808E-015
Line.RESIST_MTR_TRF_17_1080A, 0.06818364, -0.2260144, 0.06818364, -0.2260144, 0, 0
Reactor.TRF_17_1080A_R, 5.472353E-009, -4.135903E-025, 5.472353E-009, -4.135903E-025, 0, 0
Transformer.TRF_17_1081A, 64.94876, 1.216836, 0.06126766, 1.216836, 64.8875, -3.811242E-015
Line.RESIST_MTR_TRF_17_1081A, 0.007364536, -0.22779, 0.007364536, -0.22779, 0, 0
Reactor.TRF_17_1081A_R, 5.449282E-008, 0, 5.449282E-008, 0, 0, 0
Transformer.TRF_17_1082A, 50.04394, 9.644955, 0.7649689, 9.644955, 49.27897, 2.436961E-015
Line.RESIST_MTR_TRF_17_1082A, 0.05454144, -0.2257935, 0.05454144, -0.2257935, 0, 0
Reactor.TRF_17_1082A_R, 3.567786E-009, 0, 3.567786E-009, 0, 0, 0
Transformer.TRF_17_1115A, 51.46022, 8.623088, 2.396652, 8.623088, 49.06357, 2.084379E-017
Line.RESIST_MTR_TRF_17_1115A, 0.1036402, -0.2259613, 0.1036402, -0.2259613, 0, 0
Reactor.TRF_17_1115A_R, 7.453666E-008, 5.169879E-026, 7.453666E-008, 5.169879E-026, 0, 0
Transformer.TRF_17_1116A, 64.41636, 0.04926878, 0.00493105, 0.04926878, 64.41143, 6.00377E-018
Line.RESIST_MTR_TRF_17_1116A, 0.0003530739, -0.2259599, 0.0003530739, -0.2259599, 0, 0
Reactor.TRF_17_1116A_R, 6.074906E-009, 0, 6.074906E-009, 0, 0, 0
Transformer.TRF_17_1283A, 159.7843, 3.657151, 1.089695, 3.657151, 158.6946, 4.440909E-016
Reactor.TRF_17_1283A_R, 5.121838E-018, 0, 5.121838E-018, 0, 0, 0
Transformer.TRF_17_1509A, 49.59845, 0.03719714, 0.004835378, 0.03719714, 49.59361, -4.553649E-018
Line.RESIST_MTR_TRF_17_1509A, 0.0002091154, -0.2261804, 0.0002091154, -0.2261804, 0, 0
Reactor.TRF_17_1509A_R, 1.987454E-007, 0, 1.987454E-007, 0, 0, 0
Transformer.TRF_17_1590A, 96.07854, 36.44971, 7.968878, 36.44971, 88.10967, -4.548228E-017
Line.RESIST_MTR_TRF_17_1590A, 1.151686, -0.2259258, 1.151686, -0.2259258, 0, 0
Reactor.TRF_17_1590A_R, 5.992273E-008, 5.169879E-026, 5.992273E-008, 5.169879E-026, 0, 0
Transformer.TRF_17_1663A, 64.39279, 14.04246, 0.8950642, 14.04246, 63.49773, 5.641158E-015
Line.RESIST_MTR_TRF_17_1663A, 0.1065587, -0.223661, 0.1065587, -0.223661, 0, 0
Reactor.TRF_17_1663A_R, 7.796877E-008, 0, 7.796877E-008, 0, 0, 0
Transformer.TRF_17_1670A, 52.94248, 45.39696, 3.540853, 45.39696, 49.40163, -4.389935E-016
Line.RESIST_MTR_TRF_17_1670A, 0.2531845, -0.227675, 0.2531845, -0.227675, 0, 0
Reactor.TRF_17_1670A_R, 1.305601E-007, -6.617445E-024, 1.305601E-007, -6.617445E-024, 0, 0
Transformer.TRF_17_1714A, 90.3118, 13.56233, 0.8625075, 13.56233, 89.44929, -1.385827E-015
Line.RESIST_MTR_TRF_17_1714A, 0.1892062, -0.2273561, 0.1892062, -0.2273561, 0, 0
Reactor.TRF_17_1714A_R, 3.395773E-008, -3.308722E-024, 3.395773E-008, -3.308722E-024, 0, 0
Transformer.TRF_17_1757A, 159.2828, 2.68922, 0.7993282, 2.68922, 158.4834, 3.595882E-015
Reactor.TRF_17_1757A_R, 1.668123E-007, 0, 1.668123E-007, 0, 0, 0
Transformer.TRF_17_1823A, 96.78194, 8.928026, 3.184168, 8.928026, 93.59777, 1.706584E-015
Reactor.TRF_17_1823A_R, 1.521346E-010, 0, 1.521346E-010, 0, 0, 0
Transformer.TRF_17_1843A, 64.6663, 3.286012, 0.2605845, 3.286012, 64.40572, -1.699487E-017
Line.RESIST_MTR_TRF_17_1843A, 0.03006781, -0.2264228, 0.03006781, -0.2264228, 0, 0
Reactor.TRF_17_1843A_R, 1.608574E-008, 0, 1.608574E-008, 0, 0, 0
Transformer.TRF_17_2014A, 163.2519, 16.61388, 4.976727, 16.61388, 158.2752, -3.013517E-016
Reactor.TRF_17_2014A_R, 4.091213E-008, 0, 4.091213E-008, 0, 0, 0
Transformer.TRF_17_2128A, 49.65614, 0.8738101, 0.2379038, 0.8738101, 49.41823, -2.785885E-015
Line.RESIST_MTR_TRF_17_2128A, 0.0102865, -0.2260088, 0.0102865, -0.2260088, 0, 0
Reactor.TRF_17_2128A_R, 9.394623E-009, 0, 9.394623E-009, 0, 0, 0
Transformer.TRF_17_2430A, 49.86649, 0.03739817, 0.00486151, 0.03739817, 49.86163, 3.964711E-015
Line.RESIST_MTR_TRF_17_2430A, 0.0002102453, -0.2274027, 0.0002102453, -0.2274027, 0, 0
Reactor.TRF_17_2430A_R, 9.270105E-008, 0, 9.270105E-008, 0, 0, 0
Transformer.TRF_17_2462A, 49.08267, 8.955639, 0.3950573, 8.955639, 48.68761, 3.221002E-015
Line.RESIST_MTR_TRF_17_2462A, 0.02891637, -0.2226143, 0.02891637, -0.2226143, 0, 0
Reactor.TRF_17_2462A_R, 9.210914E-009, 0, 9.210914E-009, 0, 0, 0
Transformer.TRF_17_2504A, 92.49855, 36.74499, 3.786399, 36.74499, 88.71215, 3.610393E-017
Line.RESIST_MTR_TRF_17_2504A, 0.7611502, -0.2264973, 0.7611502, -0.2264973, 0, 0
Reactor.TRF_17_2504A_R, 7.432016E-008, 0, 7.432016E-008, 0, 0, 0
Transformer.TRF_17_26A, 74.85633, 0.5222866, 0.136676, 0.5222866, 74.71965, -1.684959E-015
Reactor.TRF_17_26A_R, 1.610107E-008, 0, 1.610107E-008, 0, 0, 0
Transformer.TRF_17_2608A, 66.90375, 10.87657, 2.51514, 10.87657, 64.38861, -3.290337E-015
Line.RESIST_MTR_TRF_17_2608A, 0.2074028, -0.2277553, 0.2074028, -0.2277553, 0, 0
Reactor.TRF_17_2608A_R, 5.201666E-008, -3.308722E-024, 5.201666E-008, -3.308722E-024, 0, 0
Transformer.TRF_17_2624A, 49.77195, 6.360468, 0.287201, 6.360468, 49.48475, 2.166371E-017
Line.RESIST_MTR_TRF_17_2624A, 0.02106643, -0.2261635, 0.02106643, -0.2261635, 0, 0
Reactor.TRF_17_2624A_R, 2.039333E-009, 6.462349E-027, 2.039333E-009, 6.462349E-027, 0, 0
Transformer.TRF_17_27A, 216.0738, 11.21792, 2.981514, 11.21792, 213.0923, 2.223112E-015
Reactor.TRF_17_27A_R, 5.481445E-010, 0, 5.481445E-010, 0, 0, 0
Transformer.TRF_17_2778A, 160.3113, 20.49098, 6.140045, 20.49098, 154.1713, 9.064025E-016
Reactor.TRF_17_2778A_R, 3.456801E-008, -1.654361E-024, 3.456801E-008, -1.654361E-024, 0, 0
Transformer.TRF_17_2851A, 49.93426, 2.220901, 0.6131702, 2.220901, 49.32109, 4.176821E-015
Line.RESIST_MTR_TRF_17_2851A, 0.02651412, -0.2260044, 0.02651412, -0.2260044, 0, 0
Reactor.TRF_17_2851A_R, 1.171202E-008, 0, 1.171202E-008, 0, 0, 0
Transformer.TRF_17_290A, 49.51147, 6.011181, 0.2724644, 6.011181, 49.23901, 1.282001E-016
Line.RESIST_MTR_TRF_17_290A, 0.01999176, -0.2250267, 0.01999176, -0.2250267, 0, 0
Reactor.TRF_17_290A_R, 2.11979E-009, 0, 2.11979E-009, 0, 0, 0
Transformer.TRF_17_2930A, 49.80224, 6.231688, 0.4097572, 6.231688, 49.39249, -2.423192E-017
Line.RESIST_MTR_TRF_17_2930A, 0.02989049, -0.2259656, 0.02989049, -0.2259656, 0, 0
Reactor.TRF_17_2930A_R, 2.124372E-007, 2.067952E-025, 2.124372E-007, 2.067952E-025, 0, 0
Transformer.TRF_17_2932A, 210.7231, 3.103791, 0.8179047, 3.103791, 209.9052, 1.731892E-015
Reactor.TRF_17_2932A_R, 3.787314E-008, 0, 3.787314E-008, 0, 0, 0
Transformer.TRF_17_2937A, 50.08063, 1.54029, 0.4235365, 1.54029, 49.65709, -4.023583E-015
Line.RESIST_MTR_TRF_17_2937A, 0.01831372, -0.2273413, 0.01831372, -0.2273413, 0, 0
Reactor.TRF_17_2937A_R, 1.096749E-007, 0, 1.096749E-007, 0, 0, 0
Transformer.TRF_17_2948A, 136.0254, 18.77162, 2.098606, 18.77162, 133.9268, -1.230743E-014
Line.RESIST_MTR_TRF_17_2948A, 0.6651425, -0.2272969, 0.6651425, -0.2272969, 0, 0
Reactor.TRF_17_2948A_R, 3.656109E-007, 0, 3.656109E-007, 0, 0, 0
Transformer.TRF_17_3187A, 54.47836, 19.27498, 5.363946, 19.27498, 49.11441, 3.383253E-016
Line.RESIST_MTR_TRF_17_3187A, 0.2319621, -0.2273422, 0.2319621, -0.2273422, 0, 0
Reactor.TRF_17_3187A_R, 2.633055E-007, -1.323489E-023, 2.633055E-007, -1.323489E-023, 0, 0
Transformer.TRF_17_3292A, 221.1281, 37.04599, 9.869074, 37.04599, 211.259, -7.154654E-015
Reactor.TRF_17_3292A_R, 8.993197E-008, 0, 8.993197E-008, 0, 0, 0
Transformer.TRF_17_3337A, 165.2137, 31.56951, 9.463519, 31.56951, 155.7502, -2.014496E-015
Reactor.TRF_17_3337A_R, 1.023889E-008, 8.271806E-025, 1.023889E-008, 8.271806E-025, 0, 0
Transformer.TRF_17_3410A, 50.16726, 0.9598282, 0.2618112, 0.9598282, 49.90544, 3.05745E-016
Line.RESIST_MTR_TRF_17_3410A, 0.01132028, -0.2282708, 0.01132028, -0.2282708, 0, 0
Reactor.TRF_17_3410A_R, 9.025278E-009, 0, 9.025278E-009, 0, 0, 0
Transformer.TRF_17_3448A, 102.054, 28.15267, 10.05017, 28.15267, 92.00388, -1.332268E-015
Reactor.TRF_17_3448A_R, 4.662543E-022, 0, 4.662543E-022, 0, 0, 0
Transformer.TRF_17_3466A, 215.9773, 12.2349, 3.252724, 12.2349, 212.7246, 3.747003E-015
Reactor.TRF_17_3466A_R, 9.729645E-023, 0, 9.729645E-023, 0, 0, 0
Transformer.TRF_17_3467A, 163.7165, 20.41885, 6.118247, 20.41885, 157.5982, 3.91357E-015
Reactor.TRF_17_3467A_R, 3.676688E-010, 2.584939E-026, 3.676688E-010, 2.584939E-026, 0, 0
Transformer.TRF_17_3503A, 54.34328, 20.36004, 5.112666, 20.36004, 49.23061, 4.584007E-016
Line.RESIST_MTR_TRF_17_3503A, 0.2581326, -0.2277648, 0.2581326, -0.2277648, 0, 0
Reactor.TRF_17_3503A_R, 7.103801E-009, 4.135903E-025, 7.103801E-009, 4.135903E-025, 0, 0
Transformer.TRF_17_3511A, 85.07371, 44.16338, 12.19006, 44.16338, 72.88365, -1.025926E-016
Reactor.TRF_17_3511A_R, 1.808698E-008, 0, 1.808698E-008, 0, 0, 0
Transformer.TRF_17_36A, 309.7631, 384.261, 102.4599, 384.261, 207.3032, 6.840572E-015
Reactor.TRF_17_36A_R, 3.754999E-008, 0, 3.754999E-008, 0, 0, 0
Transformer.TRF_17_3693A, 155.4974, 1.181804, 0.3472642, 1.181804, 155.1502, 2.555081E-015
Reactor.TRF_17_3693A_R, 2.369088E-011, 0, 2.369088E-011, 0, 0, 0
Transformer.TRF_17_37A, 162.1869, 18.66538, 5.59225, 18.66538, 156.5947, 1.792542E-015
Reactor.TRF_17_37A_R, 2.464225E-007, 0, 2.464225E-007, 0, 0, 0
Transformer.TRF_17_3765A, 49.62211, 0.6843932, 0.1851366, 0.6843932, 49.43698, 1.721442E-015
Line.RESIST_MTR_TRF_17_3765A, 0.008004775, -0.2260084, 0.008004775, -0.2260084, 0, 0
Reactor.TRF_17_3765A_R, 1.026226E-007, 0, 1.026226E-007, 0, 0, 0
Transformer.TRF_17_3776A, 54.733, 47.45527, 5.634192, 47.45527, 49.09881, 2.505862E-017
Line.RESIST_MTR_TRF_17_3776A, 0.3719608, -0.227173, 0.3719608, -0.227173, 0, 0
Reactor.TRF_17_3776A_R, 7.367638E-009, 0, 7.367638E-009, 0, 0, 0
Transformer.TRF_17_3778A, 87.0884, 7.924471, 0.377401, 7.924471, 86.711, 7.193681E-017
Line.RESIST_MTR_TRF_17_3778A, 0.08461037, -0.2200956, 0.08461037, -0.2200956, 0, 0
Reactor.TRF_17_3778A_R, 4.010809E-008, 0, 4.010809E-008, 0, 0, 0
Transformer.TRF_17_3876A, 824.7151, 254.9507, 139.8259, 254.9507, 684.8892, 1.233636E-014
Reactor.TRF_17_3876A_R, 9.281138E-009, 0, 9.281138E-009, 0, 0, 0
Transformer.TRF_17_3929A, 55.80351, 33.6971, 6.76904, 33.6971, 49.03447, -3.821813E-016
Line.RESIST_MTR_TRF_17_3929A, 0.3825558, -0.227343, 0.3825558, -0.227343, 0, 0
Reactor.TRF_17_3929A_R, 1.007228E-007, -6.617445E-024, 1.007228E-007, -6.617445E-024, 0, 0
Transformer.TRF_17_3994A, 92.29608, 49.58167, 3.789891, 49.58167, 88.50619, -3.545341E-017
Line.RESIST_MTR_TRF_17_3994A, 0.8094878, -0.2259013, 0.8094878, -0.2259013, 0, 0
Reactor.TRF_17_3994A_R, 9.246369E-008, 0, 9.246369E-008, 0, 0, 0
Transformer.TRF_17_4094A, 111.0329, 58.61529, 20.92976, 58.61529, 90.10313, -2.442491E-015
Reactor.TRF_17_4094A_R, 5.995046E-022, 0, 5.995046E-022, 0, 0, 0
Transformer.TRF_17_4114A, 36.34929, 16.63244, 1.763008, 16.63244, 34.58628, -3.183218E-015
Line.RESIST_MTR_TRF_17_4114A, 0.05639686, -0.2277674, 0.05639686, -0.2277674, 0, 0
Reactor.TRF_17_4114A_R, 9.522898E-008, 0, 9.522898E-008, 0, 0, 0
Transformer.TRF_17_4191A, 50.08278, 1.250867, 0.3057379, 1.250867, 49.77704, 2.767562E-016
Line.RESIST_MTR_TRF_17_4191A, 0.0155597, -0.2277407, 0.0155597, -0.2277407, 0, 0
Reactor.TRF_17_4191A_R, 5.525073E-009, 0, 5.525073E-009, 0, 0, 0
Transformer.TRF_17_4193A, 422.8218, 0.2050752, 0.02356809, 0.2050752, 422.7982, -1.66013E-015
Reactor.TRF_17_4193A_R, 1.036989E-021, 4.701977E-038, 1.036989E-021, 4.701977E-038, 0, 0
Transformer.TRF_17_42A, 218.9601, 224.8176, 67.43809, 224.8176, 151.522, 2.570754E-015
Reactor.TRF_17_42A_R, 9.001469E-010, 0, 9.001469E-010, 0, 0, 0
Transformer.TRF_17_4250A, 50.10417, 14.68059, 0.7578715, 14.68059, 49.3463, -3.997996E-018
Line.RESIST_MTR_TRF_17_4250A, 0.05598203, -0.2259589, 0.05598203, -0.2259589, 0, 0
Reactor.TRF_17_4250A_R, 9.11419E-009, -3.231174E-027, 9.11419E-009, -3.231174E-027, 0, 0
Transformer.TRF_17_4296A, 89.39764, 4.169325, 0.2937853, 4.169325, 89.10386, -5.182486E-017
Line.RESIST_MTR_TRF_17_4296A, 0.0634282, -0.2261563, 0.0634282, -0.2261563, 0, 0
Reactor.TRF_17_4296A_R, 4.720119E-008, 0, 4.720119E-008, 0, 0, 0
Transformer.TRF_17_4306A, 49.1428, 0.8587207, 0.2337572, 0.8587207, 48.90905, -3.141476E-016
Line.RESIST_MTR_TRF_17_4306A, 0.0101072, -0.2236757, 0.0101072, -0.2236757, 0, 0
Reactor.TRF_17_4306A_R, 2.85339E-008, -1.654361E-024, 2.85339E-008, -1.654361E-024, 0, 0
Transformer.TRF_17_4333A, 76.64385, 103.2788, 13.31304, 103.2788, 63.33081, -1.402144E-016
Line.RESIST_MTR_TRF_17_4333A, 1.388139, -0.2264239, 1.388139, -0.2264239, 0, 0
Reactor.TRF_17_4333A_R, 2.238793E-008, 0, 2.238793E-008, 0, 0, 0
Transformer.TRF_17_4433A, 49.73949, 5.581556, 0.323143, 5.581556, 49.41635, -1.340345E-017
Line.RESIST_MTR_TRF_17_4433A, 0.02379168, -0.2259573, 0.02379168, -0.2259573, 0, 0
Reactor.TRF_17_4433A_R, 6.308325E-009, -1.29247E-026, 6.308325E-009, -1.29247E-026, 0, 0
Transformer.TRF_17_4457A, 50.97619, 9.276639, 1.480846, 9.276639, 49.49534, 2.37771E-015
Line.RESIST_MTR_TRF_17_4457A, 0.09039276, -0.2273839, 0.09039276, -0.2273839, 0, 0
Reactor.TRF_17_4457A_R, 4.474377E-008, 0, 4.474377E-008, 0, 0, 0
Transformer.TRF_17_4474A, 178.9011, 69.97608, 20.98539, 69.97608, 157.9157, -3.500462E-015
Reactor.TRF_17_4474A_R, 2.508326E-009, 2.067952E-025, 2.508326E-009, 2.067952E-025, 0, 0
Transformer.TRF_17_4500A, 421.5281, 0.7888738, 0.1466925, 0.7888738, 421.3814, -9.684327E-015
Reactor.TRF_17_4500A_R, 7.882778E-014, 0, 7.882778E-014, 0, 0, 0
Transformer.TRF_17_4741A, 49.56909, 0.9712273, 0.05453952, 0.9712273, 49.51455, 2.195509E-018
Line.RESIST_MTR_TRF_17_4741A, 0.00400028, -0.2259996, 0.00400028, -0.2259996, 0, 0
Reactor.TRF_17_4741A_R, 5.91303E-009, 0, 5.91303E-009, 0, 0, 0
Transformer.TRF_17_4834A, 53.6858, 91.23054, 4.251819, 91.23054, 49.43398, 4.607209E-015
Line.RESIST_MTR_TRF_17_4834A, 0.3130022, -0.2276688, 0.3130022, -0.2276688, 0, 0
Reactor.TRF_17_4834A_R, 1.300684E-007, 0, 1.300684E-007, 0, 0, 0
Transformer.TRF_17_4890A, 50.70112, 9.937808, 1.518395, 9.937808, 49.18272, -1.267161E-017
Line.RESIST_MTR_TRF_17_4890A, 0.09388816, -0.2259762, 0.09388816, -0.2259762, 0, 0
Reactor.TRF_17_4890A_R, 8.977363E-009, 0, 8.977363E-009, 0, 0, 0
Transformer.TRF_17_4914A, 155.4229, 0.08230238, 0.0174054, 0.08230238, 155.4055, 2.331468E-015
Reactor.TRF_17_4914A_R, 1.382084E-026, 0, 1.382084E-026, 0, 0, 0
Transformer.TRF_17_4916A, 50.06788, 5.756251, 0.7192529, 5.756251, 49.34863, 4.106416E-018
Line.RESIST_MTR_TRF_17_4916A, 0.04686734, -0.2261588, 0.04686734, -0.2261588, 0, 0
Reactor.TRF_17_4916A_R, 7.562749E-009, -2.584939E-026, 7.562749E-009, -2.584939E-026, 0, 0
Transformer.TRF_17_4932A, 166.5055, 37.77948, 11.32654, 37.77948, 155.179, 5.837368E-016
Reactor.TRF_17_4932A_R, 1.897596E-008, -1.654361E-024, 1.897596E-008, -1.654361E-024, 0, 0
Transformer.TRF_17_4988A, 213.7434, 2.032761, 0.5321457, 2.032761, 213.2113, -2.571909E-015
Reactor.TRF_17_4988A_R, 3.99657E-010, 0, 3.99657E-010, 0, 0, 0
Transformer.TRF_17_4997A, 155.5957, 1.899356, 0.5625321, 1.899356, 155.0332, 1.720846E-015
Reactor.TRF_17_4997A_R, 3.904788E-021, 0, 3.904788E-021, 0, 0, 0
Transformer.TRF_17_5052A, 109.4369, 46.49297, 16.60023, 46.49297, 92.83663, -1.665335E-015
Reactor.TRF_17_5052A_R, 2.304253E-022, 0, 2.304253E-022, 0, 0, 0
Transformer.TRF_17_5062A, 49.56708, 0.7093524, 0.1920963, 0.7093524, 49.37499, 2.093757E-015
Line.RESIST_MTR_TRF_17_5062A, 0.008305721, -0.2257375, 0.008305721, -0.2257375, 0, 0
Reactor.TRF_17_5062A_R, 1.024757E-008, 0, 1.024757E-008, 0, 0, 0
Transformer.TRF_17_5116A, 87.59519, 4.966709, 1.096134, 4.966709, 86.49906, -4.320546E-017
Line.RESIST_MTR_TRF_17_5116A, 0.1481313, -0.2200896, 0.1481313, -0.2200896, 0, 0
Reactor.TRF_17_5116A_R, 8.931912E-008, -1.033976E-025, 8.931912E-008, -1.033976E-025, 0, 0
Transformer.TRF_17_5131A, 49.9099, 10.41008, 0.4555903, 10.41008, 49.45431, -7.826584E-019
Line.RESIST_MTR_TRF_17_5131A, 0.0333186, -0.2261634, 0.0333186, -0.2261634, 0, 0
Reactor.TRF_17_5131A_R, 5.912563E-010, 0, 5.912563E-010, 0, 0, 0
Transformer.TRF_17_514A, 161.7068, 26.19921, 7.85252, 26.19921, 153.8543, -3.546631E-015
Reactor.TRF_17_514A_R, 5.002851E-009, -4.135903E-025, 5.002851E-009, -4.135903E-025, 0, 0
Transformer.TRF_17_5141A, 49.72207, 0.6118139, 0.1649051, 0.6118139, 49.55716, 9.120851E-018
Line.RESIST_MTR_TRF_17_5141A, 0.007129943, -0.2265216, 0.007129943, -0.2265216, 0, 0
Reactor.TRF_17_5141A_R, 1.124828E-008, 1.615587E-027, 1.124828E-008, 1.615587E-027, 0, 0
Transformer.TRF_17_5148A, 51.23429, 7.433636, 2.065295, 7.433636, 49.169, -2.0898E-017
Line.RESIST_MTR_TRF_17_5148A, 0.08931038, -0.2262833, 0.08931038, -0.2262833, 0, 0
Reactor.TRF_17_5148A_R, 2.335754E-009, -4.038968E-028, 2.335754E-009, -4.038968E-028, 0, 0
Transformer.TRF_17_5156A, 112.1942, 55.38519, 19.77604, 55.38519, 92.41817, 3.036976E-016
Reactor.TRF_17_5156A_R, 3.794889E-009, -6.462349E-027, 3.794889E-009, -6.462349E-027, 0, 0
Transformer.TRF_17_5173A, 156.8344, 6.545442, 1.956362, 6.545442, 154.8781, 2.211479E-015
Reactor.TRF_17_5173A_R, 2.708107E-008, -1.654361E-024, 2.708107E-008, -1.654361E-024, 0, 0
Transformer.TRF_17_5211A, 91.74727, 16.68198, 3.123372, 16.68198, 88.6239, -1.951564E-018
Line.RESIST_MTR_TRF_17_5211A, 0.5137796, -0.226187, 0.5137796, -0.226187, 0, 0
Reactor.TRF_17_5211A_R, 1.109034E-007, 0, 1.109034E-007, 0, 0, 0
Transformer.TRF_17_5262A, 64.61738, 0.7343091, 0.1778117, 0.7343091, 64.43957, -5.19303E-015
Line.RESIST_MTR_TRF_17_5262A, 0.01272954, -0.2264982, 0.01272954, -0.2264982, 0, 0
Reactor.TRF_17_5262A_R, 1.959226E-008, 0, 1.959226E-008, 0, 0, 0
Transformer.TRF_17_5283A, 159.0119, 0.2569089, 0.06962005, 0.2569089, 158.9423, -1.644E-015
Reactor.TRF_17_5283A_R, 3.870277E-010, 2.584939E-026, 3.870277E-010, 2.584939E-026, 0, 0
Transformer.TRF_17_5296A, 66.42597, 11.00513, 2.111709, 11.00513, 64.31427, -1.78953E-015
Line.RESIST_MTR_TRF_17_5296A, 0.1930977, -0.2273124, 0.1930977, -0.2273124, 0, 0
Reactor.TRF_17_5296A_R, 1.23073E-007, 0, 1.23073E-007, 0, 0, 0
Transformer.TRF_17_5436A, 155.3514, 0.1635436, 0.04178143, 0.1635436, 155.3096, -4.496403E-015
Reactor.TRF_17_5436A_R, 9.108699E-024, 0, 9.108699E-024, 0, 0, 0
Transformer.TRF_17_5441A, 159.7861, 19.22089, 5.759021, 19.22089, 154.0271, 1.769111E-015
Reactor.TRF_17_5441A_R, 1.754549E-008, 0, 1.754549E-008, 0, 0, 0
Transformer.TRF_17_5541A, 50.57982, 9.304173, 0.9507799, 9.304173, 49.62904, 5.729229E-016
Line.RESIST_MTR_TRF_17_5541A, 0.064809, -0.2275846, 0.064809, -0.2275846, 0, 0
Reactor.TRF_17_5541A_R, 2.720499E-010, 0, 2.720499E-010, 0, 0, 0
Transformer.TRF_17_5577A, 50.15214, 2.667317, 0.7375172, 2.667317, 49.41462, -2.271404E-017
Line.RESIST_MTR_TRF_17_5577A, 0.03189134, -0.2265454, 0.03189134, -0.2265454, 0, 0
Reactor.TRF_17_5577A_R, 3.293224E-008, -1.29247E-026, 3.293224E-008, -1.29247E-026, 0, 0
Transformer.TRF_17_5634A, 50.15518, 1.815383, 0.5001688, 1.815383, 49.65501, 4.750296E-016
Line.RESIST_MTR_TRF_17_5634A, 0.02162753, -0.2274184, 0.02162753, -0.2274184, 0, 0
Reactor.TRF_17_5634A_R, 1.463477E-008, 8.271806E-025, 1.463477E-008, 8.271806E-025, 0, 0
Transformer.TRF_17_5658A, 157.7924, 16.23602, 4.863614, 16.23602, 152.9288, 3.552714E-015
Reactor.TRF_17_5658A_R, 5.97366E-022, 0, 5.97366E-022, 0, 0, 0
Transformer.TRF_17_5685A, 159.793, 3.928525, 1.171111, 3.928525, 158.6219, 6.936974E-016
Reactor.TRF_17_5685A_R, 4.028259E-010, 1.009742E-028, 4.028259E-010, 1.009742E-028, 0, 0
Transformer.TRF_17_5714A, 94.97178, 2.584323, 0.9185442, 2.584323, 94.05324, 2.595146E-015
Reactor.TRF_17_5714A_R, 6.701236E-022, 1.175494E-038, 6.701236E-022, 1.175494E-038, 0, 0
Transformer.TRF_17_5750A, 158.7901, 4.250815, 1.267849, 4.250815, 157.5222, -1.720846E-015
Reactor.TRF_17_5750A_R, 1.905951E-022, -1.175494E-038, 1.905951E-022, -1.175494E-038, 0, 0
Transformer.TRF_17_5755A, 50.5165, 4.225323, 1.171537, 4.225323, 49.34496, 2.405574E-017
Line.RESIST_MTR_TRF_17_5755A, 0.05066021, -0.226559, 0.05066021, -0.226559, 0, 0
Reactor.TRF_17_5755A_R, 1.063036E-008, 0, 1.063036E-008, 0, 0, 0
Transformer.TRF_17_5851A, 95.74892, 4.761432, 1.696085, 4.761432, 94.05284, 5.757533E-016
Reactor.TRF_17_5851A_R, 1.227339E-007, 0, 1.227339E-007, 0, 0, 0
Transformer.TRF_17_5880A, 159.8322, 1.410163, 0.4155698, 1.410163, 159.4166, -1.56819E-015
Reactor.TRF_17_5880A_R, 9.545075E-022, 0, 9.545075E-022, 0, 0, 0
Transformer.TRF_17_5893A, 64.57039, 1.919175, 0.09041044, 1.919175, 64.47998, -1.192622E-018
Line.RESIST_MTR_TRF_17_5893A, 0.01088562, -0.2264043, 0.01088562, -0.2264043, 0, 0
Reactor.TRF_17_5893A_R, 1.642277E-008, 0, 1.642277E-008, 0, 0, 0
Transformer.TRF_17_5941A, 64.57337, 0.1416649, 0.02502093, 0.1416649, 64.54835, -6.532318E-018
Line.RESIST_MTR_TRF_17_5941A, 0.002111493, -0.2265518, 0.002111493, -0.2265518, 0, 0
Reactor.TRF_17_5941A_R, 3.535604E-008, -1.29247E-026, 3.535604E-008, -1.29247E-026, 0, 0
Transformer.TRF_17_5952A, 50.60492, 7.257775, 1.419248, 7.257775, 49.18567, 2.344587E-018
Line.RESIST_MTR_TRF_17_5952A, 0.08096622, -0.2259588, 0.08096622, -0.2259588, 0, 0
Reactor.TRF_17_5952A_R, 2.418178E-009, 0, 2.418178E-009, 0, 0, 0
Transformer.TRF_17_5972A, 110.405, 50.64426, 18.08286, 50.64426, 92.32214, -1.665335E-016
Reactor.TRF_17_5972A_R, 1.623304E-022, 0, 1.623304E-022, 0, 0, 0
Transformer.TRF_17_5980A, 166.5679, 29.00481, 8.694024, 29.00481, 157.8739, -1.309724E-015
Reactor.TRF_17_5980A_R, 2.609516E-008, 0, 2.609516E-008, 0, 0, 0
Transformer.TRF_17_5989A, 65.29962, 7.132619, 0.7918061, 7.132619, 64.50782, -7.72223E-017
Line.RESIST_MTR_TRF_17_5989A, 0.08557079, -0.2272529, 0.08557079, -0.2272529, 0, 0
Reactor.TRF_17_5989A_R, 1.771836E-008, 0, 1.771836E-008, 0, 0, 0
Transformer.TRF_17_5993A, 221.6844, 57.40636, 15.29872, 57.40636, 206.3857, 7.549517E-015
Reactor.TRF_17_5993A_R, 8.421658E-022, 0, 8.421658E-022, 0, 0, 0
Transformer.TRF_17_6002A, 64.93659, 2.3664, 0.4100124, 2.3664, 64.52658, 1.872959E-017
Line.RESIST_MTR_TRF_17_6002A, 0.03886602, -0.2270595, 0.03886602, -0.2270595, 0, 0
Reactor.TRF_17_6002A_R, 1.763229E-008, 0, 1.763229E-008, 0, 0, 0
Transformer.TRF_17_6003A, 95.02706, 1.484129, 0.5256011, 1.484129, 94.50146, -3.186037E-015
Reactor.TRF_17_6003A_R, 3.201594E-011, -1.615587E-027, 3.201594E-011, -1.615587E-027, 0, 0
Transformer.TRF_17_6004A, 98.80756, 14.07148, 5.021104, 14.07148, 93.78646, -1.311242E-015
Reactor.TRF_17_6004A_R, 2.572513E-012, 0, 2.572513E-012, 0, 0, 0
Transformer.TRF_17_6042A, 171.0413, 46.51919, 13.94836, 46.51919, 157.0929, 4.355406E-015
Reactor.TRF_17_6042A_R, 5.173437E-008, -3.308722E-024, 5.173437E-008, -3.308722E-024, 0, 0
Transformer.TRF_17_6058A, 95.31194, 4.249551, 1.513279, 4.249551, 93.79866, 8.940819E-017
Reactor.TRF_17_6058A_R, 7.435386E-009, 0, 7.435386E-009, 0, 0, 0
Transformer.TRF_17_6060A, 49.56553, 0.03717245, 0.004832168, 0.03717245, 49.56069, 7.196392E-018
Line.RESIST_MTR_TRF_17_6060A, 0.0002089763, -0.2260303, 0.0002089763, -0.2260303, 0, 0
Reactor.TRF_17_6060A_R, 7.68135E-009, -2.019484E-028, 7.68135E-009, -2.019484E-028, 0, 0
Transformer.TRF_17_6073A, 94.73871, 0.7608322, 0.267282, 0.7608322, 94.47143, 1.484923E-015
Reactor.TRF_17_6073A_R, 2.969695E-023, 0, 2.969695E-023, 0, 0, 0
Transformer.TRF_17_6233A, 214.385, 4.529588, 1.197962, 4.529588, 213.1871, 9.797718E-015
Reactor.TRF_17_6233A_R, 1.125799E-021, 0, 1.125799E-021, 0, 0, 0
Transformer.TRF_17_6463A, 50.147, 3.018725, 0.83542, 3.018725, 49.31158, 5.421011E-019
Line.RESIST_MTR_TRF_17_6463A, 0.03612506, -0.2261559, 0.03612506, -0.2261559, 0, 0
Reactor.TRF_17_6463A_R, 8.964965E-009, 1.615587E-027, 8.964965E-009, 1.615587E-027, 0, 0
Transformer.TRF_17_739A, 194.318, 129.8883, 38.95915, 129.8883, 155.3588, 2.553513E-015
Reactor.TRF_17_739A_R, 9.496702E-022, 0, 9.496702E-022, 0, 0, 0
Transformer.TRF_17_923A, 64.80039, 0.2068287, 0.04465314, 0.2068287, 64.75573, 1.948094E-015
Line.RESIST_MTR_TRF_17_923A, 0.003196316, -0.2273468, 0.003196316, -0.2273468, 0, 0
Reactor.TRF_17_923A_R, 1.000998E-007, 0, 1.000998E-007, 0, 0, 0
Transformer.TRF_17_924A, 91.0037, 21.04954, 1.728498, 21.04954, 89.2752, -3.263557E-015
Line.RESIST_MTR_TRF_17_924A, 0.3643887, -0.2273036, 0.3643887, -0.2273036, 0, 0
Reactor.TRF_17_924A_R, 4.5111E-008, 0, 4.5111E-008, 0, 0, 0
Transformer.TRF_18_1079A, 159.7694, 5.304059, 1.583792, 5.304059, 158.1856, 4.742263E-015
Reactor.TRF_18_1079A_R, 6.431723E-008, -6.617445E-024, 6.431723E-008, -6.617445E-024, 0, 0
Transformer.TRF_18_1083A, 89.34006, 2.848746, 0.5651429, 2.848746, 88.77492, -3.458768E-015
Line.RESIST_MTR_TRF_18_1083A, 0.08888645, -0.2255782, 0.08888645, -0.2255782, 0, 0
Reactor.TRF_18_1083A_R, 3.115024E-008, 0, 3.115024E-008, 0, 0, 0
Transformer.TRF_18_1171A, 71.20147, 17.57799, 4.428529, 17.57799, 66.77294, -4.293441E-017
Line.RESIST_MTR_TRF_18_1171A, 0.3170763, -0.236829, 0.3170763, -0.236829, 0, 0
Reactor.TRF_18_1171A_R, 4.014937E-007, -2.646978E-023, 4.014937E-007, -2.646978E-023, 0, 0
Transformer.TRF_18_1175A, 48.33998, 7.386391, 0.8306249, 7.386391, 47.50936, -1.724288E-015
Line.RESIST_MTR_TRF_18_1175A, 0.05547226, -0.2178098, 0.05547226, -0.2178098, 0, 0
Reactor.TRF_18_1175A_R, 3.612641E-008, 0, 3.612641E-008, 0, 0, 0
Transformer.TRF_18_1192A, 52.20082, 8.825038, 0.4004453, 8.825038, 51.80037, -2.182499E-016
Line.RESIST_MTR_TRF_18_1192A, 0.02939281, -0.2368481, 0.02939281, -0.2368481, 0, 0
Reactor.TRF_18_1192A_R, 2.272229E-008, -1.654361E-024, 2.272229E-008, -1.654361E-024, 0, 0
Transformer.TRF_18_1488A, 75.39884, 71.42329, 8.903197, 71.42329, 66.49564, 1.705342E-015
Line.RESIST_MTR_TRF_18_1488A, 0.9363695, -0.2368069, 0.9363695, -0.2368069, 0, 0
Reactor.TRF_18_1488A_R, 3.025775E-007, 0, 3.025775E-007, 0, 0, 0
Transformer.TRF_18_1782A, 64.71176, 6.393898, 1.405441, 6.393898, 63.30632, 1.613564E-016
Line.RESIST_MTR_TRF_18_1782A, 0.119886, -0.2234408, 0.119886, -0.2234408, 0, 0
Reactor.TRF_18_1782A_R, 4.480786E-008, 0, 4.480786E-008, 0, 0, 0
Transformer.TRF_18_1786A, 36.4618, 0.8357667, 0.2476194, 0.8357667, 36.21418, 5.871226E-016
Line.RESIST_MTR_TRF_18_1786A, 0.004970296, -0.2368893, 0.004970296, -0.2368893, 0, 0
Reactor.TRF_18_1786A_R, 6.786283E-008, 3.308722E-024, 6.786283E-008, 3.308722E-024, 0, 0
Transformer.TRF_18_1799A, 50.53059, 31.53988, 1.951476, 31.53988, 48.57911, 9.202166E-018
Line.RESIST_MTR_TRF_18_1799A, 0.1432182, -0.2231616, 0.1432182, -0.2231616, 0, 0
Reactor.TRF_18_1799A_R, 8.648112E-009, 0, 8.648112E-009, 0, 0, 0
Transformer.TRF_18_1812A, 47.76462, 0.03582183, 0.004656597, 0.03582183, 47.75996, 2.056027E-015
Line.RESIST_MTR_TRF_18_1812A, 0.0002013825, -0.2178178, 0.0002013825, -0.2178178, 0, 0
Reactor.TRF_18_1812A_R, 7.402257E-009, -4.135903E-025, 7.402257E-009, -4.135903E-025, 0, 0
Transformer.TRF_18_1813A, 62.40815, 2.22059, 0.5532158, 2.22059, 61.85493, -5.27215E-015
Line.RESIST_MTR_TRF_18_1813A, 0.03960723, -0.2178048, 0.03960723, -0.2178048, 0, 0
Reactor.TRF_18_1813A_R, 1.364884E-007, 0, 1.364884E-007, 0, 0, 0
Transformer.TRF_18_1814A, 65.28105, 16.87889, 3.842105, 16.87889, 61.43895, -1.5915E-015
Line.RESIST_MTR_TRF_18_1814A, 0.3208587, -0.2177924, 0.3208587, -0.2177924, 0, 0
Reactor.TRF_18_1814A_R, 2.362962E-007, -1.323489E-023, 2.362962E-007, -1.323489E-023, 0, 0
Transformer.TRF_18_2182A, 96.25494, 42.38013, 3.425564, 42.38013, 92.82937, -7.847889E-015
Line.RESIST_MTR_TRF_18_2182A, 0.7244517, -0.2368395, 0.7244517, -0.2368395, 0, 0
Reactor.TRF_18_2182A_R, 9.386571E-008, 0, 9.386571E-008, 0, 0, 0
Transformer.TRF_18_2400A, 49.21643, 5.172345, 0.3625859, 5.172345, 48.85385, -2.244298E-017
Line.RESIST_MTR_TRF_18_2400A, 0.0262654, -0.2234696, 0.0262654, -0.2234696, 0, 0
Reactor.TRF_18_2400A_R, 6.252727E-009, -1.29247E-026, 6.252727E-009, -1.29247E-026, 0, 0
Transformer.TRF_18_2403A, 50.08445, 5.255648, 1.458634, 5.255648, 48.62582, -4.667829E-017
Line.RESIST_MTR_TRF_18_2403A, 0.06307498, -0.2234454, 0.06307498, -0.2234454, 0, 0
Reactor.TRF_18_2403A_R, 1.075654E-009, 0, 1.075654E-009, 0, 0, 0
Transformer.TRF_18_2552A, 64.61911, 5.801515, 1.294688, 5.801515, 63.32442, 4.786753E-017
Line.RESIST_MTR_TRF_18_2552A, 0.1093426, -0.2234494, 0.1093426, -0.2234494, 0, 0
Reactor.TRF_18_2552A_R, 8.73184E-008, 2.067952E-025, 8.73184E-008, 2.067952E-025, 0, 0
Transformer.TRF_18_2610A, 68.82893, 12.00246, 1.757402, 12.00246, 67.07153, -1.380244E-015
Line.RESIST_MTR_TRF_18_2610A, 0.1766842, -0.2368431, 0.1766842, -0.2368431, 0, 0
Reactor.TRF_18_2610A_R, 2.688816E-008, -1.654361E-024, 2.688816E-008, -1.654361E-024, 0, 0
Transformer.TRF_18_2671A, 48.94243, 0.286757, 0.07294062, 0.286757, 48.86949, -6.586528E-017
Line.RESIST_MTR_TRF_18_2671A, 0.00338531, -0.2231794, 0.00338531, -0.2231794, 0, 0
Reactor.TRF_18_2671A_R, 7.261888E-008, 1.033976E-025, 7.261888E-008, 1.033976E-025, 0, 0
Transformer.TRF_18_2682A, 49.56666, 0.5269394, 0.08136862, 0.5269394, 49.48529, -7.29126E-018
Line.RESIST_MTR_TRF_18_2682A, 0.004954641, -0.2259987, 0.004954641, -0.2259987, 0, 0
Reactor.TRF_18_2682A_R, 6.819887E-008, 0, 6.819887E-008, 0, 0, 0
Transformer.TRF_18_2739A, 52.98362, 9.598213, 1.406349, 9.598213, 51.57727, -3.196689E-015
Line.RESIST_MTR_TRF_18_2739A, 0.0879802, -0.2368739, 0.0879802, -0.2368739, 0, 0
Reactor.TRF_18_2739A_R, 3.361262E-009, -2.067952E-025, 3.361262E-009, -2.067952E-025, 0, 0
Transformer.TRF_18_2748A, 40.35283, 6.09809, 0.2526946, 6.09809, 40.10013, -1.789611E-017
Reactor.TRF_18_2748A_R, 5.457943E-009, 0, 5.457943E-009, 0, 0, 0
Transformer.TRF_18_2814A, 53.77392, 10.21029, 2.328911, 10.21029, 51.44501, -1.295378E-015
Line.RESIST_MTR_TRF_18_2814A, 0.1243813, -0.2368393, 0.1243813, -0.2368393, 0, 0
Reactor.TRF_18_2814A_R, 4.453263E-008, 0, 4.453263E-008, 0, 0, 0
Transformer.TRF_18_2924A, 64.49546, 5.09757, 1.141799, 5.09757, 63.35366, 1.87838E-017
Line.RESIST_MTR_TRF_18_2924A, 0.09614706, -0.2234687, 0.09614706, -0.2234687, 0, 0
Reactor.TRF_18_2924A_R, 2.141126E-008, 0, 2.141126E-008, 0, 0, 0
Transformer.TRF_18_3023A, 72.43986, 94.12418, 9.763425, 94.12418, 62.67643, 2.165694E-017
Line.RESIST_MTR_TRF_18_3023A, 1.072651, -0.2233934, 1.072651, -0.2233934, 0, 0
Reactor.TRF_18_3023A_R, 1.915417E-008, 0, 1.915417E-008, 0, 0, 0
Transformer.TRF_18_3066A, 40.08596, 1.928391, 0.1490522, 1.928391, 39.93691, 2.716035E-015
Reactor.TRF_18_3066A_R, 7.689844E-009, 4.135903E-025, 7.689844E-009, 4.135903E-025, 0, 0
Transformer.TRF_18_3075A, 48.474, 21.53309, 0.9096647, 21.53309, 47.56433, -3.008956E-015
Line.RESIST_MTR_TRF_18_3075A, 0.06622935, -0.2178001, 0.06622935, -0.2178001, 0, 0
Reactor.TRF_18_3075A_R, 8.876995E-010, 0, 8.876995E-010, 0, 0, 0
Transformer.TRF_18_3076A, 34.5866, 5.078103, 1.520581, 5.078103, 33.06602, -3.732908E-016
Line.RESIST_MTR_TRF_18_3076A, 0.03052756, -0.2178127, 0.03052756, -0.2178127, 0, 0
...